!Put Keywords Here, check Charge and Multiplicity.
#m062X/6-31+G(d) OPT Freq=noraman

 1,3-dichlorobenzene

0  1
C           1.88510        -1.03630        -0.11240
C           2.92100        -1.63090         0.60810
C           2.87830        -1.65200         2.00220
C           1.79970        -1.07860         2.67570
C           0.76380        -0.48410         1.95510
C           0.80660        -0.46300         0.56100
Cl         -0.56730         0.22290         2.78550
Cl          4.15660        -2.38520         2.89100
H           1.91880        -1.02000        -1.19780
H           3.75500        -2.07360         0.06990
H           1.76700        -1.09470         3.76300
H           0.00660        -0.00330        -0.01380

