!Put Keywords Here, check Charge and Multiplicity.
#m062X/6-31+G(d) OPT Freq=noraman

 2-chlorophenol

0  1
C           1.88510        -1.03630        -0.11240
C           2.92100        -1.63090         0.60810
C           2.87830        -1.65200         2.00220
C           1.79970        -1.07860         2.67570
C           0.76380        -0.48410         1.95510
C           0.80660        -0.46300         0.56100
O          -0.30230         0.08370         2.58680
Cl          1.77290        -1.11910         4.40000
H           1.91850        -1.01990        -1.19790
H           3.76070        -2.07720         0.08360
H           3.69330        -2.11910         2.54930
H           0.00310        -0.00160        -0.00690
H          -0.20510        -0.00070         3.54800

