!Put Keywords Here, check Charge and Multiplicity.
#m062X/6-31+G(d) OPT Freq=noraman

 2-chloropropane

0  1
C           0.86450        -0.54280         0.39720
C           1.00620        -0.30250         1.89320
C           1.19750         1.17390         2.20840
Cl          2.39740        -1.23260         2.51890
H           0.72740        -1.60800         0.18160
H          -0.00710        -0.00990         0.00230
H           1.74660        -0.19580        -0.15220
H           0.11640        -0.67550         2.41030
H           1.29840         1.33540         3.28710
H           0.33560         1.75590         1.86510
H           2.09100         1.57780         1.71970

