!Put Keywords Here, check Charge and Multiplicity.
#m062X/6-31+G(d) OPT Freq=noraman

 neopentane

0  1
C          -0.61380        -0.12460         0.89900
C           0.26050        -0.34990         2.14090
C           1.18510         0.85920         2.34210
C           1.10780        -1.61560         1.94740
C          -0.63720        -0.51880         3.37500
H          -1.28620        -0.97290         0.72890
H          -1.23160         0.77380         1.00750
H           0.00000        -0.00040        -0.00010
H           1.82310         0.72750         3.22320
H           0.60800         1.78000         2.48320
H           1.83960         1.00560         1.47560
H           1.74420        -1.80330         2.81950
H           0.47430        -2.49760         1.80100
H           1.76050        -1.52500         1.07190
H          -0.04050        -0.68170         4.27950
H          -1.31010        -1.37600         3.26070
H          -1.25560         0.37090         3.53950

