!Put Keywords Here, check Charge and Multiplicity.
#m062X/6-31+G(d) OPT Freq=noraman

 1,1,2-trichloroethane

0  1
C          -0.19440         0.62200         0.46580
C           0.42620        -0.49240        -0.37240
Cl         -0.07300        -0.39680        -2.07960
Cl          0.05490        -2.10520         0.28670
Cl         -1.97730         0.60140         0.47320
H           0.13350         0.54760         1.50780
H           0.11530         1.60330         0.09160
H           1.51530        -0.39100        -0.35790

