!Put Keywords Here, check Charge and Multiplicity.
#m062X/6-31+G(d) OPT Freq=noraman

 4-methylpyridine

0  1
C           2.34690         0.89820         1.04450
C           1.38790        -0.06840         1.65220
C           0.22650        -0.41970         0.97330
C          -0.63170        -1.32240         1.58030
N          -0.40920        -1.88160         2.79080
C           0.72990        -1.51610         3.42060
C           1.65200        -0.62270         2.89970
H           3.08610         0.36290         0.44080
H           1.82420         1.61900         0.40710
H           2.86910         1.46990         1.81900
H          -0.00800        -0.00590        -0.00170
H          -1.55050        -1.63000         1.09170
H           0.88950        -1.97610         4.39020
H           2.54900        -0.36830         3.45370

