!Put Keywords Here, check Charge and Multiplicity.
#m062X/6-31+G(d) OPT Freq=noraman

 morpholine

0  1
C           0.26260        -1.38940        -0.06340
C           1.20550        -0.34030        -0.64160
O           1.09830         0.88080         0.09250
C          -0.23740         1.38630         0.04880
C          -1.20710         0.36960         0.63990
N          -1.12200        -0.90710        -0.07620
H           0.55320        -1.62690         0.96720
H           0.33060        -2.31160        -0.64950
H           2.24150        -0.68540        -0.56480
H           0.99630        -0.14870        -1.70100
H          -0.26290         2.31140         0.63330
H          -0.49800         1.63930        -0.98610
H          -0.97830         0.20570         1.70000
H          -2.23040         0.75320         0.57660
H          -1.72530        -1.59260         0.37710

