!Put Keywords Here, check Charge and Multiplicity.
#m062X/6-31+G(d) OPT Freq=noraman

 methylsulfonylmethane

0  1
C           1.06160         0.23820         0.09270
S           1.27490         1.26940         1.52270
O           0.94690         0.47900         2.69300
O           0.61080         2.53160         1.26290
C           3.02510         1.56950         1.54200
H           1.30630         0.82460        -0.79430
H           1.73230        -0.61770         0.18230
H           0.02230        -0.09190         0.05830
H           3.23890         2.20130         2.39870
H           3.52080         0.60740         1.62720
H           3.28190         2.06560         0.61120

