!Put Keywords Here, check Charge and Multiplicity.
#m062X/6-31+G(d) OPT Freq=noraman

 methyl formate

0  1
C           0.34990        -1.03440         0.07140
O           1.57890        -1.19210        -0.64470
C           1.51170        -0.93620        -1.97660
O           0.53350        -0.59180        -2.62120
H           0.51110        -1.26250         1.12780
H          -0.40480        -1.70550        -0.34630
H           0.01060        -0.00060        -0.02820
H           2.51120        -1.09030        -2.41200

