!Put Keywords Here, check Charge and Multiplicity.
#m062X/6-31+G(d) OPT Freq=noraman

 1,1,2,2,3,3,4,4-octafluorocyclobutane

0  1
C           0.83010        -0.69460         0.00350
C          -0.28350        -0.29710         1.00150
C          -0.59740         0.89960         0.07230
C           0.05090         0.09210        -1.07720
F           0.80560         0.80510        -1.94150
F          -0.80720        -0.64420        -1.82010
F           0.02920         2.05610         0.38950
F          -1.90690         1.19290        -0.08330
F          -1.28350        -1.19820         1.13900
F           0.13190         0.02100         2.24700
F           0.96940        -2.01930        -0.22220
F           2.06150        -0.21350         0.29150

