!Put Keywords Here, check Charge and Multiplicity.
#m062X/6-31+G(d) OPT Freq=noraman

 1-chloro-2-methyl-benzene

0  1
C           1.96860        -1.03440        -1.60470
C           1.88510        -1.03630        -0.11240
C           2.92100        -1.63090         0.60810
C           2.87830        -1.65200         2.00220
C           1.79970        -1.07860         2.67570
C           0.76380        -0.48410         1.95510
C           0.80660        -0.46300         0.56100
Cl         -0.49290         0.28170        -0.29680
H           2.48600        -0.13390        -1.94960
H           2.51000        -1.91450        -1.96710
H           0.96940        -1.06200        -2.05210
H           3.76700        -2.07870         0.09340
H           3.68620        -2.11280         2.56300
H           1.76920        -1.09230         3.76130
H          -0.06840        -0.03990         2.49530

