!Put Keywords Here, check Charge and Multiplicity.
#m062X/6-31+G(d) OPT Freq=noraman

 ethanethiol

0  1
C           0.44120        -0.34960         0.93950
C           1.85180        -0.86810         0.73400
S           2.92580         0.44460         0.09210
H          -0.22160        -1.13050         1.32740
H           0.42130         0.49950         1.63110
H           0.02690        -0.00850        -0.01510
H           1.85010        -1.70080         0.02400
H           2.26450        -1.22940         1.68070
H           2.76730         1.27960         1.12820

