!Put Keywords Here, check Charge and Multiplicity.
#m062X/6-31+G(d) OPT Freq=noraman

 1,2-dichloroethane

0  1
C          -0.54540        -0.50590        -0.19940
C           0.48030         0.42130         0.43010
Cl          1.81440         0.79060        -0.68910
Cl         -1.27310         0.20560        -1.65990
H          -1.36080        -0.69540         0.50490
H          -0.10290        -1.46800        -0.47550
H           0.02900         1.36780         0.74360
H           0.92310        -0.05340         1.31080

