!Put Keywords Here, check Charge and Multiplicity.
#m062X/6-31+G(d) OPT Freq=noraman

 toluene

0  1
C           1.93090        -1.01400        -1.60290
C           1.88510        -1.03630        -0.11240
C           2.92100        -1.63090         0.60810
C           2.87830        -1.65200         2.00220
C           1.79970        -1.07860         2.67570
C           0.76380        -0.48410         1.95510
C           0.80660        -0.46300         0.56100
H           2.43870        -0.10830        -1.94840
H           2.46370        -1.88850        -1.99080
H           0.92080        -1.03670        -2.02540
H           3.76490        -2.08030         0.09150
H           3.68500        -2.11480         2.56320
H           1.76620        -1.09490         3.76110
H          -0.07620        -0.03820         2.47940
H          -0.00500         0.00280         0.00830

