!Put Keywords Here, check Charge and Multiplicity.
#m062X/6-31+G(d) OPT Freq=noraman

 1,1,1,2-tetrachloroethane

0  1
C          -0.22640        -0.31960         0.71450
C           0.14930         0.18370        -0.68210
Cl          1.92060         0.37790        -0.84960
Cl         -0.39460        -1.02460        -1.89380
Cl         -0.65480         1.73930        -1.05090
Cl          0.28600         0.77500         2.02950
H           0.23270        -1.29290         0.92040
H          -1.31120        -0.43970         0.81210

