!Put Keywords Here, check Charge and Multiplicity.
#m062X/6-31+G(d) OPT Freq=noraman

 nitromethane

-1  2
C          -0.52500        -0.75550         0.58730
N          -1.83330        -0.97310        -0.01580
O          -2.41320        -2.05860         0.20800
O          -2.30950        -0.07410        -0.74350
H           0.23400        -1.11940        -0.10730
H          -0.48630        -1.30900         1.52730
H          -0.40510         0.31470         0.76500

