!Put Keywords Here, check Charge and Multiplicity.
#m062X/6-31+G(d) OPT Freq=noraman

 acetaldehyde

0  1
C          -0.58860        -0.91970        -0.03400
C          -1.50330        -0.96030         1.15120
O          -1.47620        -1.84920         1.99580
H          -1.05670        -1.45190        -0.86530
H          -0.39910         0.11620        -0.32610
H           0.35590        -1.40260         0.22670
H          -2.22250        -0.12730         1.22700

