!Put Keywords Here, check Charge and Multiplicity.
#m062X/6-31+G(d) OPT Freq=noraman

 ethane

0  1
C           0.81510        -0.53830         0.49280
C           2.15480        -0.05160        -0.01170
H           0.00010         0.00070         0.00060
H           0.69310        -1.60670         0.29060
H           0.73030        -0.38000         1.57210
H           2.96980        -0.59060         0.48050
H           2.27670         1.01660         0.19080
H           2.23960        -0.20970        -1.09090

