!Put Keywords Here, check Charge and Multiplicity.
#m062X/6-31+G(d) OPT Freq=noraman

 phenol

0  1
C           1.88510        -1.03630        -0.11240
C           2.92100        -1.63090         0.60810
C           2.87830        -1.65200         2.00220
C           1.79970        -1.07860         2.67570
C           0.76380        -0.48410         1.95510
C           0.80660        -0.46300         0.56100
O           1.75930        -1.09810         4.03590
H           1.91840        -1.02060        -1.19790
H           3.76050        -2.07730         0.08300
H           3.68890        -2.11490         2.55840
H          -0.07850        -0.03450         2.47370
H          -0.00010         0.00010         0.00010
H           0.95230        -0.66340         4.35480

