!Put Keywords Here, check Charge and Multiplicity.
#m062X/6-31+G(d) OPT Freq=noraman

 propane

0  1
C          -0.55320        -0.27860         0.90290
C           0.38490        -0.44250         2.08700
C           1.13070         0.81910         2.38890
H          -1.09010        -1.21000         0.69610
H          -1.29750         0.50050         1.09720
H           0.00850        -0.00030         0.00600
H          -0.19070        -0.74230         2.96980
H           1.10140        -1.24430         1.87660
H           1.79550         0.66300         3.24650
H           0.43790         1.62940         2.63960
H           1.74450         1.12130         1.53380

