!Put Keywords Here, check Charge and Multiplicity.
#m062X/def2SVP OPT Freq=noraman

 2-iodopropane

0  1
C          -0.27010        -0.54430        -1.14120
C          -0.18180        -0.40300         0.37550
C           0.24170         1.00790         0.77270
I           1.23210        -1.83370         1.15800
H          -0.57410        -1.55700        -1.42810
H          -1.01090         0.15170        -1.54930
H           0.68970        -0.33270        -1.62560
H          -1.16550        -0.61490         0.81030
H           0.30550         1.11070         1.86160
H          -0.48580         1.74330         0.41280
H           1.21910         1.27170         0.35350

