!Put Keywords Here, check Charge and Multiplicity.
#m062X/6-31+G(d) OPT Freq=noraman

 4-hydroxybenzonitrile

0  1
C           1.88510        -1.03630        -0.11240
C           2.92100        -1.63090         0.60810
C           2.87830        -1.65200         2.00220
C           1.79970        -1.07860         2.67570
C           0.76380        -0.48410         1.95510
C           0.80660        -0.46300         0.56100
C          -0.25470         0.14570        -0.17720
N          -1.11770         0.64070        -0.77750
O           3.88910        -2.23210         2.70510
H           1.93240        -1.02830        -1.19880
H           3.75820        -2.07660         0.07790
H           1.76100        -1.09170         3.76150
H          -0.07000        -0.04100         2.49430
H           3.71650        -2.16750         3.65800

