!Put Keywords Here, check Charge and Multiplicity.
#m062X/6-31+G(d) OPT Freq=noraman

 chloroethane

0  1
C           0.15430        -0.72470         0.80620
C           1.36720        -0.36800         1.63950
Cl          2.83210        -0.35700         0.63420
H          -0.74420        -0.72970         1.43110
H          -0.00010         0.00010         0.00010
H           0.25890        -1.71870         0.35890
H           1.51440        -1.09580         2.44240
H           1.25500         0.62520         2.08320

