!Put Keywords Here, check Charge and Multiplicity.
#m062X/6-31+G(d) OPT Freq=noraman

 trichloro(nitro)methane

0  1
C           0.57720        -0.02960         0.15990
N          -0.88450         0.06320        -0.23860
O          -1.40310        -0.88680        -0.84190
O          -1.49010         1.10480         0.06160
Cl          0.68420        -1.43480         1.21750
Cl          1.46710        -0.22480        -1.34910
Cl          1.04980         1.44860         0.99800

