!Put Keywords Here, check Charge and Multiplicity.
#m062X/6-31+G(d) OPT Freq=noraman

 1,2-dichlorobenzene

0  1
C           1.88510        -1.03630        -0.11240
C           2.92100        -1.63090         0.60810
C           2.87830        -1.65200         2.00220
C           1.79970        -1.07860         2.67570
C           0.76380        -0.48410         1.95510
C           0.80660        -0.46300         0.56100
Cl         -0.59900         0.24280         2.73150
Cl          1.80440        -1.13660         4.40340
H           1.91860        -1.02000        -1.19790
H           3.76070        -2.07730         0.08350
H           3.69420        -2.11960         2.54760
H           0.00800        -0.00410        -0.01660

