!Put Keywords Here, check Charge and Multiplicity.
#m062X/6-31+G(d) OPT Freq=noraman

 1,1-dichloroethylene

0  1
C          -0.95900         0.06220        -0.53840
C          -1.73990        -1.01980        -0.76150
Cl         -1.28270        -2.59720        -0.20960
Cl         -3.24380        -0.89220        -1.61210
H          -1.23380         1.07230        -0.88170
H           0.00000         0.00000         0.00000

