!Put Keywords Here, check Charge and Multiplicity.
#m062X/6-31+G(d) OPT Freq=noraman

 3-hydroxybenzonitrile

0  1
C           1.88510        -1.03630        -0.11240
C           2.92100        -1.63090         0.60810
C           2.87830        -1.65200         2.00220
C           1.79970        -1.07860         2.67570
C           0.76380        -0.48410         1.95510
C           0.80660        -0.46300         0.56100
O          -0.28770         0.07730         2.61200
C           3.93980        -2.26120         2.73970
N           4.80290        -2.75660         3.33950
H           1.91810        -1.01970        -1.19790
H           3.75480        -2.07390         0.06860
H           1.75850        -1.08930         3.76270
H           0.00310        -0.00010        -0.00540
H          -0.92200         0.44720         1.97750

