!Put Keywords Here, check Charge and Multiplicity.
#m062X/6-31+G(d) OPT Freq=noraman

 cyclopropane

0  1
C           0.59480        -0.71290         0.55700
C           2.07790        -0.49290         0.61590
C           1.51750        -1.60990        -0.21490
H           0.00030         0.00030        -0.00010
H           0.11020        -1.12180         1.43440
H           2.48180         0.36800         0.09830
H           2.59090        -0.75410         1.53300
H           1.54460        -1.50090        -1.29180
H           1.65400        -2.62270         0.14300

