!Put Keywords Here, check Charge and Multiplicity.
#m062X/6-31+G(d) OPT Freq=noraman

 3-chloropyridine

0  1
C           1.65200        -0.62270         2.89970
C           1.38790        -0.06840         1.65220
C           0.22650        -0.41970         0.97330
C          -0.63170        -1.32240         1.58030
N          -0.40920        -1.88160         2.79080
C           0.72990        -1.51610         3.42060
Cl         -0.13220         0.24280        -0.56690
H           2.55130        -0.36360         3.44680
H           2.09510         0.63540         1.22140
H          -1.55440        -1.63710         1.10180
H           0.88890        -1.97650         4.39020

