!Put Keywords Here, check Charge and Multiplicity.
#m062X/6-31+G(d) OPT Freq=noraman

 pyrrole

0  1
C           0.28910         0.01960         1.04140
C           1.52040         0.47270         1.57590
C           1.45750         0.31710         2.94310
N           0.23150        -0.21330         3.24930
C          -0.48880        -0.39900         2.09830
H          -0.00100         0.00030         0.00040
H           2.36130         0.86870         1.02410
H           2.17290         0.53630         3.72310
H          -0.09160        -0.43410         4.18110
H          -1.48690        -0.81260         2.13340

