!Put Keywords Here, check Charge and Multiplicity.
#m062X/6-31+G(d) OPT Freq=noraman

 pyridine

0  1
C           1.38790        -0.06840         1.65220
C           0.22650        -0.41970         0.97330
C          -0.63170        -1.32240         1.58030
N          -0.40920        -1.88160         2.79080
C           0.72990        -1.51610         3.42060
C           1.65200        -0.62270         2.89970
H           2.08560         0.63660         1.21020
H           0.00030        -0.00050        -0.00020
H          -1.55090        -1.62830         1.09180
H           0.88830        -1.97610         4.39050
H           2.55080        -0.36300         3.44730

