!Put Keywords Here, check Charge and Multiplicity.
#m062X/6-31+G(d) OPT Freq=noraman

 2-methylprop-1-ene

0  1
C           1.76290        -2.74400         1.21880
C           1.10970        -1.78540         0.26790
C           0.46920        -0.68740         0.69600
C           1.21440        -2.12470        -1.18940
H           1.05360        -3.52100         1.52150
H           2.62300        -3.22500         0.74200
H           2.11970        -2.24650         2.12680
H          -0.00000        -0.00020         0.00000
H           0.39920        -0.45040         1.75250
H           0.36640        -2.74530        -1.49680
H           1.21360        -1.21110        -1.79290
H           2.13230        -2.67600        -1.42010

