!Put Keywords Here, check Charge and Multiplicity.
#m062X/6-31+G(d) OPT Freq=noraman

 chloroform

0  1
C          -0.06540         0.08280        -0.04780
Cl         -0.95380        -1.44750        -0.13520
Cl          0.24910         0.52510         1.63870
Cl          1.45170        -0.02500        -0.95660
H          -0.68170         0.86460        -0.49920

