!Put Keywords Here, check Charge and Multiplicity.
#m062X/6-31+G(d) OPT Freq=noraman

 acetic acid

0  1
C          -1.02840         0.34480        -0.13400
C          -1.65300         0.61050         1.19900
O          -2.65170         0.05330         1.62960
O          -0.95980         1.56160         1.87140
H          -1.46240         1.00880        -0.88570
H           0.05330         0.48810        -0.07230
H          -1.22590        -0.69050        -0.42650
H          -0.18960         1.88570         1.35760

