!Put Keywords Here, check Charge and Multiplicity.
#m062X/6-31+G(d) OPT Freq=noraman

 benzene

0  1
C           1.88510        -1.03630        -0.11240
C           2.92100        -1.63090         0.60810
C           2.87830        -1.65200         2.00220
C           1.79970        -1.07860         2.67570
C           0.76380        -0.48410         1.95510
C           0.80660        -0.46300         0.56100
H           1.91740        -1.02030        -1.19780
H           3.76130        -2.07690         0.08410
H           3.68480        -2.11500         2.56310
H           1.76650        -1.09550         3.76140
H          -0.07600        -0.03770         2.47910
H           0.00040         0.00030        -0.00030

