!Put Keywords Here, check Charge and Multiplicity.
#m062X/6-31+G(d) OPT Freq=noraman

 2-chloroaniline

0  1
C           1.88510        -1.03630        -0.11240
C           2.92100        -1.63090         0.60810
C           2.87830        -1.65200         2.00220
C           1.79970        -1.07860         2.67570
C           0.76380        -0.48410         1.95510
C           0.80660        -0.46300         0.56100
N          -0.34190         0.10530         2.60860
Cl          1.78700        -1.12630         4.40240
H           1.91930        -1.01940        -1.19790
H           3.76040        -2.07750         0.08330
H           3.69360        -2.11930         2.54870
H           0.00540        -0.00260        -0.01170
H          -0.40170         0.05230         3.60400
H          -1.08690         0.47950         2.05900

