!Put Keywords Here, check Charge and Multiplicity.
#m062X/6-31+G(d) OPT Freq=noraman

 1,1-difluoroethane

0  1
C          -0.37090         0.29340        -0.61590
C           0.30570        -0.34990         0.56790
F           0.06150         0.38150         1.68250
F           1.64810        -0.34490         0.38080
H          -0.18060        -0.28900        -1.52300
H          -1.45350         0.33730        -0.46750
H           0.01370         1.30380        -0.78070
H          -0.02850        -1.37740         0.73390

