!Put Keywords Here, check Charge and Multiplicity.
#m062X/6-31+G(d) OPT Freq=noraman

 tetrahydropyran

0  1
C          -0.46030        -0.94220        -1.04050
C          -0.49440        -1.29360         0.44300
C           0.55470        -0.49860         1.20950
O           0.38210         0.90270         0.99780
C           0.53370         1.26250        -0.37530
C          -0.51580         0.56930        -1.23460
H          -1.29720        -1.42050        -1.56100
H           0.46320        -1.33240        -1.48560
H          -1.48810        -1.04890         0.83820
H          -0.33700        -2.36790         0.58380
H           0.45510        -0.68870         2.28290
H           1.56960        -0.78950         0.91410
H           0.41850         2.34840        -0.45060
H           1.54840         1.01300        -0.70740
H          -1.51090         0.92380        -0.93910
H          -0.37320         0.82340        -2.29010

