!Put Keywords Here, check Charge and Multiplicity.
#m062X/def2SVP OPT Freq=noraman

 iodobenzene

0  1
C           1.88510        -1.03630        -0.11240
C           2.92100        -1.63090         0.60810
C           2.87830        -1.65200         2.00220
C           1.79970        -1.07860         2.67570
C           0.76380        -0.48410         1.95510
C           0.80660        -0.46300         0.56100
I           1.73600        -1.11050         4.75180
H           1.91830        -1.02000        -1.19790
H           3.76080        -2.07710         0.08360
H           3.69560        -2.12020         2.54460
H          -0.08550        -0.03180         2.46040
H           0.00010        -0.00000        -0.00020

