!Put Keywords Here, check Charge and Multiplicity.
#m062X/6-31+G(d) OPT Freq=noraman

 chloro(fluoro)methane

0  1
C           0.10870        -0.01080        -0.06460
F          -0.67370         0.09340        -1.16820
Cl         -0.89280         0.07350         1.38600
H           0.82580         0.81320        -0.06120
H           0.63200        -0.96940        -0.09200

