!Put Keywords Here, check Charge and Multiplicity.
#m062X/6-31+G(d) OPT Freq=noraman

 cyclohexanone

0  1
C           0.92600         0.33380        -1.55290
C           1.11350         1.20570        -0.31320
C          -0.14570         1.25070         0.54140
C          -0.63390        -0.14790         0.84630
O          -1.00700        -0.46940         1.97350
C          -0.76300        -1.08950        -0.33010
C           0.51010        -1.08350        -1.16500
H           1.86190         0.29890        -2.12190
H           0.16610         0.77760        -2.20730
H           1.94540         0.80880         0.28220
H           1.39060         2.22220        -0.61410
H           0.06160         1.77180         1.48170
H          -0.95000         1.78530         0.02430
H          -0.96040        -2.10110         0.03930
H          -1.62360        -0.76970        -0.92770
H           1.32260        -1.55290        -0.59610
H           0.36090        -1.68560        -2.06810

