!Put Keywords Here, check Charge and Multiplicity.
#m062X/6-31+G(d) OPT Freq=noraman

 1,4-benzoquinone

0  1
C          -0.72720         1.17400         0.36420
C           0.54070         1.07530         0.76880
C           1.36290        -0.10610         0.43490
O           2.52760        -0.19690         0.80690
C           0.72730        -1.17390        -0.36430
C          -0.54070        -1.07530        -0.76880
C          -1.36300         0.10610        -0.43490
O          -2.52770         0.19690        -0.80670
H          -1.32630         2.04290         0.61220
H           1.00240         1.86160         1.35540
H           1.32590        -2.04380        -0.61080
H          -1.00230        -1.86140        -1.35570

