!Put Keywords Here, check Charge and Multiplicity.
#m062X/6-31+G(d) OPT Freq=noraman

 1,1,1-trichloroethane

0  1
C           1.02450         0.28110        -0.27030
C           1.28710         1.75650         0.00120
Cl          0.15960         2.75540        -0.95730
Cl          1.04840         2.10220         1.73660
Cl          2.96470         2.16420        -0.45340
H           1.70290        -0.35970         0.30530
H          -0.00010         0.00000        -0.00020
H           1.16310         0.03750        -1.33050

