!Put Keywords Here, check Charge and Multiplicity.
#m062X/6-31+G(d) OPT Freq=noraman

 dichloromethane

0  1
C           0.14010        -0.03300         0.03430
Cl         -0.54400        -0.14830        -1.59100
Cl         -1.06750         0.52820         1.19610
H           0.97460         0.67250         0.01980
H           0.49680        -1.01940         0.34070

