!Put Keywords Here, check Charge and Multiplicity.
#m062X/6-31+G(d) OPT Freq=noraman

 1-methylpyrrole

0  1
C          -0.23150        -0.52710         4.58170
N           0.23150        -0.21330         3.24930
C          -0.48880        -0.39900         2.09830
C           0.28910         0.01960         1.04140
C           1.52040         0.47270         1.57590
C           1.45750         0.31710         2.94310
H          -0.73200         0.35850         4.98210
H          -0.92550        -1.37090         4.53680
H           0.62360        -0.79960         5.20660
H          -1.48870        -0.81110         2.12510
H           0.00010         0.00010         0.00000
H           2.36150         0.87020         1.02550
H           2.17950         0.53950         3.71740

