!Put Keywords Here, check Charge and Multiplicity.
#m062X/6-31+G(d) OPT Freq=noraman

 methyl acetate

0  1
C          -0.93730        -0.55520         0.08790
C          -1.63760        -0.58400        -1.23670
O          -1.90370        -1.60950        -1.84890
O          -1.91870         0.69040        -1.63160
C          -2.59120         0.81030        -2.88910
H           0.14310        -0.49650        -0.06490
H          -1.19720        -1.44660         0.66440
H          -1.25850         0.32730         0.64880
H          -2.76050         1.86460        -3.09620
H          -3.53430         0.27060        -2.83450
H          -1.95570         0.37590        -3.65750

