!Put Keywords Here, check Charge and Multiplicity.
#m062X/6-31+G(d) OPT Freq=noraman

 1,1-dichloroethane

0  1
C          -0.47120         0.68370         0.71450
C          -0.08770         0.32520         2.13890
Cl         -0.88700         1.42250         3.28820
Cl          1.67690         0.41330         2.34410
H           0.00870         0.02150        -0.01490
H          -1.55500         0.61090         0.57240
H          -0.17760         1.71260         0.47910
H          -0.40160        -0.69480         2.37700

