!Put Keywords Here, check Charge and Multiplicity.
#m062X/6-31+G(d) OPT Freq=noraman

 5-bromo-1H-pyrimidine-2,4-dione

0  1
C           0.74690         1.30150        -0.11090
C          -0.22650         0.96550         0.74280
C          -0.81590        -0.40160         0.65270
O          -1.71230        -0.77740         1.40350
N          -0.27020        -1.20460        -0.34270
C           0.74690        -0.84710        -1.23080
O           1.18090        -1.61560        -2.08940
N           1.22430         0.44290        -1.06290
Br         -0.87400         2.13630         2.03770
H           1.21950         2.27730        -0.10390
H          -0.64710        -2.14400        -0.43270
H           1.96540         0.76710        -1.67720

