!Put Keywords Here, check Charge and Multiplicity.
#m062X/6-31+G(d) OPT Freq=noraman

 1,2,3,4-tetrachlorobenzene

0  1
C           1.88510        -1.03630        -0.11240
C           2.92100        -1.63090         0.60810
C           2.87830        -1.65200         2.00220
C           1.79970        -1.07860         2.67570
C           0.76380        -0.48410         1.95510
C           0.80660        -0.46300         0.56100
Cl         -0.43850         0.25540        -0.40290
Cl         -0.58630         0.23640         2.78360
Cl          1.75910        -1.11150         4.41550
Cl          4.20040        -2.40910         2.82360
H           1.93480        -1.02870        -1.19840
H           3.75360        -2.07280         0.06610

