!Put Keywords Here, check Charge and Multiplicity.
#m062X/6-31+G(d) OPT Freq=noraman

 2-methylpyridine

0  1
C           0.98100        -2.13010         4.75740
C           0.72990        -1.51610         3.42060
C           1.65200        -0.62270         2.89970
C           1.38790        -0.06840         1.65220
C           0.22650        -0.41970         0.97330
C          -0.63170        -1.32240         1.58030
N          -0.40920        -1.88160         2.79080
H           1.54300        -3.06190         4.64180
H           1.55110        -1.45010         5.39910
H           0.03850        -2.34640         5.27150
H           2.55450        -0.35690         3.43960
H           2.08590         0.63590         1.20970
H           0.00020        -0.00030        -0.00030
H          -1.55090        -1.62910         1.09220

