!Put Keywords Here, check Charge and Multiplicity.
#m062X/6-31+G(d) OPT Freq=noraman

 6-chloro-1H-pyrimidine-2,4-dione

0  1
C          -0.72150         0.68220         0.99510
C          -0.72600        -0.80100         1.00470
O          -1.34710        -1.42090         1.86320
N           0.01090        -1.39580        -0.01170
C           0.73150        -0.72890        -1.00810
O           1.36520        -1.32200        -1.88140
N           0.67030         0.65500        -0.92740
C          -0.03260         1.31230         0.04180
Cl          0.04930         3.01910        -0.07620
H          -1.28020         1.20250         1.76410
H           0.02820        -2.41140        -0.03340
H           1.17060         1.20370        -1.62010

