!Put Keywords Here, check Charge and Multiplicity.
#m062X/def2SVP OPT Freq=noraman

 iodomethane

0  1
C           0.10990        -0.09000        -0.12010
I          -1.13660         0.93130         1.24490
H           0.76910         0.60510        -0.64880
H           0.73950        -0.82260         0.39350
H          -0.48200        -0.62370        -0.86940

