!Put Keywords Here, check Charge and Multiplicity.
#m062X/6-31+G(d) OPT Freq=noraman

 (Z)-1,2-dichloroethylene

0  1
C          -0.63140         0.08550        -0.19060
C           0.63160        -0.08570         0.19060
Cl          1.78400        -0.90990        -0.77160
Cl         -1.23530        -0.50050        -1.68240
H          -1.38590         0.60000         0.38930
H           1.04780         0.27020         1.12370

