!Put Keywords Here, check Charge and Multiplicity.
#m062X/6-31+G(d) OPT Freq=noraman

 fluorobenzene

0  1
C           1.88510        -1.03630        -0.11240
C           2.92100        -1.63090         0.60810
C           2.87830        -1.65200         2.00220
C           1.79970        -1.07860         2.67570
C           0.76380        -0.48410         1.95510
C           0.80660        -0.46300         0.56100
F           1.75840        -1.09890         4.01430
H           1.91870        -1.02000        -1.19790
H           3.76090        -2.07730         0.08390
H           3.68470        -2.11500         2.56310
H          -0.07580        -0.03780         2.47960
H          -0.00000        -0.00000         0.00000

