!Put Keywords Here, check Charge and Multiplicity.
#m062X/6-31+G(d) OPT Freq=noraman

 1,4-dichlorobenzene

0  1
C           1.88510        -1.03630        -0.11240
C           2.92100        -1.63090         0.60810
C           2.87830        -1.65200         2.00220
C           1.79970        -1.07860         2.67570
C           0.76380        -0.48410         1.95510
C           0.80660        -0.46300         0.56100
Cl         -0.47100         0.27090        -0.32800
Cl          4.15620        -2.38550         2.89110
H           1.93120        -1.02720        -1.19830
H           3.75540        -2.07370         0.07060
H           1.75350        -1.08810         3.76150
H          -0.07050        -0.04110         2.49260

