!Put Keywords Here, check Charge and Multiplicity.
#m062X/6-31+G(d) OPT Freq=noraman

 1,2,3,4,5,6-hexachlorobenzene

0  1
C           1.88510        -1.03630        -0.11240
C           2.92100        -1.63090         0.60810
C           2.87830        -1.65200         2.00220
C           1.79970        -1.07860         2.67570
C           0.76380        -0.48410         1.95510
C           0.80660        -0.46300         0.56100
Cl         -0.48820         0.28020        -0.33970
Cl         -0.58470         0.23220         2.79710
Cl          1.74630        -1.10450         4.41830
Cl          4.17300        -2.39550         2.90280
Cl          4.26930        -2.34750        -0.23380
Cl          1.93870        -1.00980        -1.85520

