!Put Keywords Here, check Charge and Multiplicity.
#m062X/6-31+G(d) OPT Freq=noraman

 methanesulfonyl chloride

0  1
C           0.70740        -0.57960         0.59510
S           2.33500        -0.04750         0.19590
O           3.00130         0.39400         1.40880
O           2.28290         0.79350        -0.98730
Cl          3.37480        -1.71370        -0.39360
H           0.21770        -0.90840        -0.32300
H           0.77920        -1.40370         1.30640
H           0.16890         0.26070         1.03590

