!Put Keywords Here, check Charge and Multiplicity.
#m062X/6-31+G(d) OPT Freq=noraman

 isobutane

0  1
C           0.66230        -0.37930        -0.78530
C           0.10070        -0.05970        -2.16880
C          -0.06900         1.44780        -2.34430
C           1.00500        -0.62880        -3.25980
H           0.78920        -1.45850        -0.64590
H           1.63770         0.09740        -0.64220
H          -0.00720        -0.01290         0.00000
H          -0.88580        -0.53060        -2.25800
H          -0.47160         1.69100        -3.33370
H           0.89110         1.96250        -2.23370
H          -0.75410         1.85170        -1.59140
H           0.61340        -0.40640        -4.25840
H           1.09190        -1.71630        -3.16450
H           2.01260        -0.20530        -3.18940

