!Put Keywords Here, check Charge and Multiplicity.
#m062X/6-31+G(d) OPT Freq=noraman

 1,1,2,3,3,3-hexafluoroprop-1-ene

0  1
C           0.23020         0.02590         0.49130
C          -0.93630        -0.44610         0.94120
F          -1.13230        -0.66920         2.25740
F          -1.93230        -0.70330         0.06710
C           0.54810         0.30550        -0.93410
F           1.80400         0.78020        -1.12930
F           0.43020        -0.81310        -1.69370
F          -0.30280         1.22440        -1.45740
F           1.19980         0.26900         1.40400

