!Put Keywords Here, check Charge and Multiplicity.
#m062X/6-31+G(d) OPT Freq=noraman

 1-methylimidazole

0  1
C           3.64200        -2.41300        -1.70310
N           2.35370        -2.03660        -1.18130
C           1.94990        -0.77400        -0.82590
C           0.65490        -0.77840        -0.36400
N           0.26030        -2.08440        -0.44160
C           1.31330        -2.80200        -0.93710
H           3.59870        -2.34080        -2.79310
H           4.40670        -1.73990        -1.30550
H           3.87140        -3.43710        -1.39550
H           2.63790         0.05410        -0.93360
H           0.02680         0.02140        -0.00640
H           1.27420        -3.87110        -1.10080

