!Put Keywords Here, check Charge and Multiplicity.
#m062X/6-31+G(d) OPT Freq=noraman

 benzenethiol

0  1
C           1.88510        -1.03630        -0.11240
C           2.92100        -1.63090         0.60810
C           2.87830        -1.65200         2.00220
C           1.79970        -1.07860         2.67570
C           0.76380        -0.48410         1.95510
C           0.80660        -0.46300         0.56100
S           1.74520        -1.10490         4.45680
H           1.91790        -1.01950        -1.19790
H           3.76040        -2.07710         0.08300
H           3.69510        -2.11970         2.54650
H          -0.08500        -0.03190         2.46220
H           0.00000         0.00030         0.00020
H           2.90480        -1.75040         4.65370

