!Put Keywords Here, check Charge and Multiplicity.
#m062X/6-31+G(d) OPT Freq=noraman

 ammonia

0  1
N          -0.19280        -0.02750        -0.22220
H          -0.63470         0.26310         0.64880
H           0.53280         0.66200        -0.41310
H           0.29470        -0.89760        -0.01350

