!Put Keywords Here, check Charge and Multiplicity.
#m062X/6-31+G(d) OPT Freq=noraman

 4-methyl-1H-imidazole

0  1
C          -0.20790         0.29810         0.12330
C           0.65490        -0.77840        -0.36400
C           1.94990        -0.77400        -0.82590
N           2.35370        -2.03660        -1.18130
C           1.31330        -2.80200        -0.93710
N           0.26030        -2.08440        -0.44160
H          -0.08780         0.41380         1.20480
H           0.03850         1.24740        -0.36390
H          -1.25970         0.08540        -0.09550
H           2.64490         0.04710        -0.93720
H           3.26120        -2.29570        -1.54710
H           1.28000        -3.87030        -1.10220

