!Put Keywords Here, check Charge and Multiplicity.
#m062X/6-31+G(d) OPT Freq=noraman

 quinoline

0  1
C           0.12980         2.09770        -0.45270
C          -0.54690         0.89760        -0.27380
C          -1.93230         0.84400        -0.44610
C          -2.66830         1.97250        -0.79680
C          -1.97470         3.18750        -0.97700
C          -0.58120         3.24170        -0.80370
C          -2.71510         4.32370        -1.33010
C          -4.09020         4.23760        -1.49360
C          -4.68040         3.00580        -1.29590
N          -4.00270         1.88580        -0.95480
H           1.20680         2.14250        -0.32190
H           0.00010         0.00000        -0.00070
H          -2.43890        -0.10830        -0.29980
H          -0.04220         4.17630        -0.94110
H          -2.22350         5.28220        -1.48090
H          -4.67790         5.10580        -1.76780
H          -5.75190         2.87780        -1.41060

