!Put Keywords Here, check Charge and Multiplicity.
#m062X/6-31+G(d) OPT Freq=noraman

 3-methylpyridine

0  1
C           2.88520        -0.26650         3.65090
C           1.65200        -0.62270         2.89970
C           1.38790        -0.06840         1.65220
C           0.22650        -0.41970         0.97330
C          -0.63170        -1.32240         1.58030
N          -0.40920        -1.88160         2.79080
C           0.72990        -1.51610         3.42060
H           3.69480        -0.95470         3.38950
H           3.20160         0.75620         3.42060
H           2.71300        -0.31640         4.73130
H           2.08080         0.63730         1.20200
H          -0.00000        -0.00010        -0.00020
H          -1.55070        -1.62890         1.09160
H           0.88200        -1.98060         4.39000

