!Put Keywords Here, check Charge and Multiplicity.
#m062X/6-31+G(d) OPT Freq=noraman

 1,3,5-triazinane-2,4,6-trione

0  1
C          -0.66290         1.16350         0.50520
O          -1.23390         2.16400         0.93970
N          -0.48360         0.00760         1.26110
C           0.15000        -1.15560         0.83090
O           0.27910        -2.14980         1.54560
N           0.62540        -1.09810        -0.47690
C           0.51300        -0.00780        -1.33620
O           0.95440        -0.01440        -2.48550
N          -0.14140         1.09070        -0.78410
H          -0.84710         0.01340         2.20980
H           1.09550        -1.92420        -0.83570
H          -0.24740         1.91130        -1.37370

