!Put Keywords Here, check Charge and Multiplicity.
#m062X/6-31+G(d) OPT Freq=noraman

 azetidine

0  1
C           0.86860        -0.48360        -0.45870
C           1.77500         0.47610        -1.24530
N           1.05970         0.10200        -2.51740
C           0.57360        -1.13990        -1.81650
H          -0.00180         0.00310        -0.00480
H           1.36260        -1.11360         0.28470
H           1.69550         1.53280        -0.97530
H           2.83240         0.18860        -1.25460
H           1.70310        -0.10800        -3.28150
H          -0.47460        -1.38670        -2.00740
H           1.19130        -2.01810        -2.03450

