!Put Keywords Here, check Charge and Multiplicity.
#m062X/6-31+G(d) OPT Freq=noraman

 (2S)-1,1,1-trifluoropropan-2-ol

0  1
C          -0.77630         0.59180         0.83490
C          -0.23720        -0.17690        -0.36210
H          -0.92490        -0.98780        -0.62440
C          -0.03180         0.71950        -1.56460
F           0.84890         1.70650        -1.28890
F           0.46020         0.01800        -2.60980
F          -1.18680         1.29520        -1.96050
O           1.01710        -0.75820        -0.02060
H          -0.10170         1.40880         1.11380
H          -0.91320        -0.06280         1.70070
H          -1.74040         1.05130         0.59140
H           0.85280        -1.35240         0.72840

