!Put Keywords Here, check Charge and Multiplicity.
#m062X/6-31+G(d) OPT Freq=noraman

 carbon tetrachloride

0  1
C          -0.00030        -0.00030         0.00010
Cl          1.61670         0.70050         0.26510
Cl          0.12230        -1.77730        -0.03650
Cl         -0.65290         0.58290        -1.55200
Cl         -1.08570         0.49430         1.32340

