!Put Keywords Here, check Charge and Multiplicity.
#m062X/Def2SVP OPT Freq=noraman

 diiodomethane

0  1
C           0.23490        -0.03110         0.06890
I          -0.56560        -0.34800        -1.86860
I          -1.37030         0.60420         1.30010
H           1.02300         0.72780         0.04110
H           0.67800        -0.95280         0.45850

