!Put Keywords Here, check Charge and Multiplicity.
#m062X/6-31+G(d) OPT Freq=noraman

 1,4-dioxane

0  1
C           0.22640        -0.91510        -1.03540
C          -0.10470         0.54710        -1.28470
O           0.36710         1.34110        -0.19350
C          -0.22630         0.91510         1.03540
C           0.10480        -0.54710         1.28470
O          -0.36720        -1.34110         0.19340
H           1.30960        -1.07190        -0.97610
H          -0.16830        -1.54130        -1.84090
H           0.38020         0.90050        -2.19950
H          -1.18570         0.69700        -1.38750
H           0.16840         1.54140         1.84100
H          -1.30960         1.07190         0.97620
H           1.18570        -0.69710         1.38750
H          -0.38010        -0.90050         2.19950

