!Put Keywords Here, check Charge and Multiplicity.
#m062X/6-31+G(d) OPT Freq=noraman

 1,2,4,5-tetrachlorobenzene

0  1
C           1.88510        -1.03630        -0.11240
C           2.92100        -1.63090         0.60810
C           2.87830        -1.65200         2.00220
C           1.79970        -1.07860         2.67570
C           0.76380        -0.48410         1.95510
C           0.80660        -0.46300         0.56100
Cl         -0.44610         0.25910        -0.38680
Cl         -0.54500         0.20940         2.84670
Cl          4.13070        -2.37430         2.95020
Cl          4.23040        -2.32410        -0.28290
H           1.91850        -1.01900        -1.20000
H           1.76650        -1.09500         3.76330

