!Put Keywords Here, check Charge and Multiplicity.
#m062X/6-31+G(d) OPT Freq=noraman

 2-chloro-2-methyl-propane

0  1
C           0.77490         0.21180        -0.74560
C           0.56350         1.57870        -1.39870
C          -0.80970         1.64280        -2.06960
C           1.66950         1.86000        -2.41750
Cl          0.63270         2.83930        -0.11920
H           1.75510         0.14730        -0.25910
H           0.01050         0.00780         0.01290
H           0.72260        -0.59010        -1.49050
H          -0.97880         2.61660        -2.54360
H          -0.91510         0.87190        -2.84150
H          -1.61080         1.48850        -1.33790
H           1.53410         2.83650        -2.89610
H           1.68950         1.10020        -3.20700
H           2.65420         1.86190        -1.93630

