!Put Keywords Here, check Charge and Multiplicity.
#m062X/6-31+G(d) OPT Freq=noraman

 1,4-dibromobenzene

0  1
C           1.88510        -1.03630        -0.11240
C           2.92100        -1.63090         0.60810
C           2.87830        -1.65200         2.00220
C           1.79970        -1.07860         2.67570
C           0.76380        -0.48410         1.95510
C           0.80660        -0.46300         0.56100
Br         -0.59650         0.34300        -0.41540
Br          4.28180        -2.45750         2.97840
H           1.93300        -1.02820        -1.19820
H           3.75450        -2.07310         0.06870
H           1.75160        -1.08710         3.76150
H          -0.06950        -0.04170         2.49440

