!Put Keywords Here, check Charge and Multiplicity.
#m062X/6-31+G(d) OPT Freq=noraman

 propan-2-ol

0  1
C           1.07650         0.04990         0.19580
C           1.35320         0.91910         1.41300
C           2.84270         1.03820         1.69760
O           0.81230         2.21840         1.19400
H           0.00280        -0.02910         0.00000
H           1.56410         0.46930        -0.69070
H           1.48330        -0.95850         0.33050
H           0.84680         0.49610         2.28680
H           3.03080         1.66510         2.57460
H           3.36140         1.47490         0.83740
H           3.29120         0.05330         1.86840
H          -0.14130         2.10240         1.05910

