!Put Keywords Here, check Charge and Multiplicity.
#m062X/6-31+G(d) OPT Freq=noraman

 bromoform

0  1
C          -0.10530         0.01400        -0.04430
Br          0.17920        -1.90170         0.12500
Br         -0.10680         0.91040         1.68070
Br          1.13770         0.83200        -1.29550
H          -1.10470         0.14530        -0.46590

