!Put Keywords Here, check Charge and Multiplicity.
#m062X/6-31+G(d) OPT Freq=noraman

 chlorobenzene

0  1
C           1.88510        -1.03630        -0.11240
C           2.92100        -1.63090         0.60810
C           2.87830        -1.65200         2.00220
C           1.79970        -1.07860         2.67570
C           0.76380        -0.48410         1.95510
C           0.80660        -0.46300         0.56100
Cl          1.74760        -1.10390         4.39570
H           1.91840        -1.02000        -1.19790
H           3.76070        -2.07710         0.08340
H           3.69290        -2.11900         2.55010
H          -0.08330        -0.03340         2.46600
H           0.00020        -0.00010        -0.00030

