!Put Keywords Here, check Charge and Multiplicity.
#m062X/6-31+G(d) OPT Freq=noraman

 1,1,2-trichloroethylene

0  1
C          -0.24240         0.30600         0.58850
C           0.23750        -0.38340        -0.44990
Cl          0.78180        -2.01790        -0.33310
Cl          0.33330         0.36900        -2.00540
Cl         -0.79780         1.92750         0.53990
H          -0.32870        -0.10330         1.58750

