!Put Keywords Here, check Charge and Multiplicity.
#m062X/6-31+G(d) OPT Freq=noraman

 imidazole

0  1
C           0.65490        -0.77840        -0.36400
C           1.94990        -0.77400        -0.82590
N           2.35370        -2.03660        -1.18130
C           1.31330        -2.80200        -0.93710
N           0.26030        -2.08440        -0.44160
H           0.00030        -0.00000         0.00050
H           2.61170         0.07440        -0.92170
H           1.25830        -3.86950        -1.09480
H          -0.64370        -2.45330        -0.17840

