!Put Keywords Here, check Charge and Multiplicity.
#m062X/6-31+G(d) OPT Freq=noraman

 2-bromo-2-methyl-propane

0  1
C           0.26950        -1.12030         0.89630
C           0.01650         0.23570         0.24120
C          -1.37940         0.29730        -0.37510
C           1.09130         0.55520        -0.79550
Br          0.11260         1.61220         1.65100
H           1.27010        -1.17220         1.34130
H          -0.45500        -1.32410         1.69350
H           0.19100        -1.92990         0.16210
H          -1.56880         1.26810        -0.84760
H          -1.51540        -0.47310        -1.14290
H          -2.15080         0.14410         0.38800
H           0.91630         1.52760        -1.27040
H           1.12020        -0.19820        -1.59140
H           2.08380         0.58610        -0.33240

