!Put Keywords Here, check Charge and Multiplicity.
#m062X/6-31+G(d) OPT Freq=noraman

 2-methylbut-2-ene

0  1
C          -0.94350        -0.41000         0.39200
C          -1.35690         0.24800         1.64610
C          -2.45330        -0.00440         2.38640
C          -2.73230         0.76160         3.64960
C          -3.47750        -1.04590         2.03460
H          -1.34860         0.09870        -0.49630
H           0.14770        -0.42060         0.25740
H          -1.29260        -1.45020         0.32300
H          -0.67800         1.02540         1.99170
H          -3.32780         1.65340         3.42850
H          -3.28950         0.13760         4.35610
H          -1.81450         1.09010         4.14850
H          -3.20880        -2.00650         2.48650
H          -4.46170        -0.74950         2.41200
H          -3.57230        -1.20440         0.95660

