!Put Keywords Here, check Charge and Multiplicity.
#m062X/6-31+G(d) OPT Freq=noraman

 5-(trifluoromethyl)-1H-pyrimidine-2,4-dione

0  1
C           1.16180         1.50740         2.58310
C           0.78280         0.38920         1.95210
C           1.53610        -0.86850         2.23120
O           1.23940        -1.92840         1.68610
N           2.57800        -0.73940         3.14110
C           2.96450         0.43310         3.79370
O           3.90180         0.47280         4.59120
N           2.20420         1.54490         3.46770
C          -0.35270         0.32900         0.98240
F          -0.93100         1.53980         0.83600
F           0.06680        -0.07570        -0.23500
F          -1.30500        -0.53370         1.39600
H           0.66100         2.45600         2.42880
H           3.11040        -1.57870         3.35260
H           2.42480         2.43600         3.90240

