!Put Keywords Here, check Charge and Multiplicity.
#m062X/6-31+G(d) OPT Freq=noraman

 1,2,4-trichlorobenzene

0  1
C           1.88510        -1.03630        -0.11240
C           2.92100        -1.63090         0.60810
C           2.87830        -1.65200         2.00220
C           1.79970        -1.07860         2.67570
C           0.76380        -0.48410         1.95510
C           0.80660        -0.46300         0.56100
Cl         -0.47180         0.26890        -0.32890
Cl          1.68870        -1.07450         4.40100
Cl          4.19030        -2.40580         2.83800
H           1.93120        -1.02780        -1.19850
H           3.75330        -2.07410         0.06720
H          -0.07820        -0.03440         2.47720

