!Put Keywords Here, check Charge and Multiplicity.
#m062X/6-31+G(d) OPT Freq=noraman

 cyclopentane

0  1
C          -0.24570         0.85380        -0.93150
C           1.12610         0.48090        -0.37040
C           0.84520        -0.32990         0.88610
C          -0.45780        -1.03940         0.56220
C          -1.26790         0.03460        -0.14650
H          -0.29390         0.62160        -2.00100
H          -0.44380         1.92540        -0.82090
H           1.66610        -0.13490        -1.09980
H           1.74030         1.36190        -0.16130
H           1.65490        -1.02720         1.11950
H           0.70940         0.33910         1.74400
H          -0.27380        -1.88330        -0.11310
H          -0.96150        -1.41880         1.45560
H          -2.04280        -0.38960        -0.79200
H          -1.76430         0.67570         0.59180

