!Put Keywords Here, check Charge and Multiplicity.
#m062X/6-31+G(d) OPT Freq=noraman

 acetamide

0  1
C           0.00850        -1.07060        -0.22160
C          -1.11430        -1.73450         0.52690
O          -2.29130        -1.57970         0.21020
N          -0.69610        -2.49940         1.59000
H           0.21340        -0.09640         0.23080
H           0.90080        -1.69890        -0.15560
H          -0.23960        -0.91730        -1.27540
H          -1.36580        -2.99430         2.16980
H           0.28220        -2.60010         1.84060

