!Put Keywords Here, check Charge and Multiplicity.
#m062X/6-31+G(d) OPT Freq=noraman

 3-chlorophenol

0  1
C           1.88510        -1.03630        -0.11240
C           2.92100        -1.63090         0.60810
C           2.87830        -1.65200         2.00220
C           1.79970        -1.07860         2.67570
C           0.76380        -0.48410         1.95510
C           0.80660        -0.46300         0.56100
Cl         -0.56740         0.22350         2.78470
O           3.88920        -2.23190         2.70520
H           1.91860        -1.02020        -1.19790
H           3.75880        -2.07560         0.07800
H           1.77430        -1.09860         3.76270
H           0.00700        -0.00240        -0.01370
H           4.56160        -2.58310         2.09990

