!Put Keywords Here, check Charge and Multiplicity.
#m062X/6-31+G(d) OPT Freq=noraman

 2-chloro-1,1,1-trifluoro-ethane

0  1
C          -0.01650         0.71480        -0.27100
C           0.03000        -0.74070         0.12000
F          -1.09370        -1.11710         0.76640
F           1.08450        -1.00630         0.91980
F           0.14690        -1.51870        -0.97960
Cl         -0.18640         1.74950         1.16310
H           0.90140         1.00650        -0.78870
H          -0.86650         0.91200        -0.93000

