!Put Keywords Here, check Charge and Multiplicity.
#m062X/6-31+G(d) OPT Freq=noraman

 chloro(difluoro)methane

0  1
C          -0.02440         0.08860         0.05140
F          -1.34320        -0.22350         0.03540
F           0.48440        -0.40070         1.20850
Cl          0.79080        -0.63980        -1.32860
H           0.09250         1.17530         0.03340

