!Put Keywords Here, check Charge and Multiplicity.
#m062X/6-31+G(d) OPT Freq=noraman

 4-fluorophenol

0  1
C           1.88510        -1.03630        -0.11240
C           2.92100        -1.63090         0.60810
C           2.87830        -1.65200         2.00220
C           1.79970        -1.07860         2.67570
C           0.76380        -0.48410         1.95510
C           0.80660        -0.46300         0.56100
O          -0.20470         0.11690        -0.14140
F           3.87310        -2.22320         2.69370
H           1.92420        -1.02370        -1.19840
H           3.76040        -2.07830         0.08420
H           1.76670        -1.09600         3.76110
H          -0.07430        -0.04010         2.48490
H          -0.03250         0.05250        -1.09440

