!Put Keywords Here, check Charge and Multiplicity.
#m062X/6-31+G(d) OPT Freq=noraman

 methylsulfinylmethane

0  1
C           0.84460        -0.56780         0.40990
S           0.86160        -0.54890         2.29560
O           2.18740        -1.14230         2.67130
C           1.02270         1.25040         2.41010
H          -0.09830        -0.14700         0.05410
H           0.94510        -1.59860         0.06370
H           1.68060         0.03010         0.04100
H           1.05690         1.53910         3.46170
H           0.16270         1.71250         1.92340
H           1.94280         1.55390         1.90890

