!Put Keywords Here, check Charge and Multiplicity.
#m062X/6-31+G(d) OPT Freq=noraman

 (2R)-2-bromo-1,1,1,2-tetrafluoro-ethane

0  1
C          -0.60400         0.43550        -0.07550
H          -1.57030        -0.07300        -0.11860
C           0.54100        -0.53980        -0.03990
F           0.55560        -1.32940        -1.13520
F           0.48820        -1.33490         1.04940
F           1.71960         0.12260        -0.00560
F          -0.48120         1.22500        -1.17310
Br         -0.60940         1.54130         1.52140

