!Put Keywords Here, check Charge and Multiplicity.
#m062X/6-31+G(d) OPT Freq=noraman

 4-chloroaniline

0  1
C           1.88510        -1.03630        -0.11240
C           2.92100        -1.63090         0.60810
C           2.87830        -1.65200         2.00220
C           1.79970        -1.07860         2.67570
C           0.76380        -0.48410         1.95510
C           0.80660        -0.46300         0.56100
N          -0.24040         0.13830        -0.16800
Cl          4.15530        -2.38720         2.89120
H           1.92890        -1.02550        -1.19840
H           3.75510        -2.07480         0.07080
H           1.75320        -1.08780         3.76160
H          -0.07240        -0.04040         2.48960
H          -1.03030         0.50400         0.32420
H          -0.22070         0.10500        -1.16720

