!Put Keywords Here, check Charge and Multiplicity.
#m062X/6-31+G(d) OPT Freq=noraman

 pyridine-3-carbonitrile

0  1
C           1.65200        -0.62270         2.89970
C           1.38790        -0.06840         1.65220
C           0.22650        -0.41970         0.97330
C          -0.63170        -1.32240         1.58030
N          -0.40920        -1.88160         2.79080
C           0.72990        -1.51610         3.42060
C          -0.07210         0.13250        -0.30770
N          -0.31580         0.58320        -1.35320
H           2.55130        -0.36390         3.44700
H           2.09640         0.63520         1.22200
H          -1.55500        -1.63840         1.10270
H           0.88950        -1.97620         4.39020

