!Put Keywords Here, check Charge and Multiplicity.
#m062X/def2SVP OPT Freq=noraman

 2-iodophenol

0  1
C           1.88510        -1.03630        -0.11240
C           2.92100        -1.63090         0.60810
C           2.87830        -1.65200         2.00220
C           1.79970        -1.07860         2.67570
C           0.76380        -0.48410         1.95510
C           0.80660        -0.46300         0.56100
O          -0.30830         0.08660         2.57480
I           1.78410        -1.13770         4.76440
H           1.91820        -1.02040        -1.19800
H           3.76040        -2.07770         0.08320
H           3.69780        -2.11970         2.54180
H           0.00360        -0.00100        -0.00750
H          -0.21950         0.00620         3.53700

