!Put Keywords Here, check Charge and Multiplicity.
#m062X/6-31+G(d) OPT Freq=noraman

 trifluoromethylbenzene

0  1
C           1.88510        -1.03630        -0.11240
C           2.92100        -1.63090         0.60810
C           2.87830        -1.65200         2.00220
C           1.79970        -1.07860         2.67570
C           0.76380        -0.48410         1.95510
C           0.80660        -0.46300         0.56100
C           1.75480        -1.10140         4.16630
F           2.83360        -1.71450         4.73720
F           1.71170         0.14160         4.73100
F           0.66140        -1.76070         4.64860
H           1.91760        -1.02100        -1.19800
H           3.76040        -2.07830         0.08410
H           3.68990        -2.11730         2.55530
H          -0.08040        -0.03480         2.47130
H          -0.00060        -0.00100         0.00010

