!Put Keywords Here, check Charge and Multiplicity.
#m062X/6-31+G(d) OPT Freq=noraman

 tetrahydrofuran

0  1
C          -0.53640        -1.02270        -0.50530
C          -0.54130         0.37240        -1.07570
C           0.60380         1.01910        -0.32710
O           0.65740         0.39670         0.96440
C          -0.18350        -0.76550         0.94370
H           0.25270        -1.61560        -0.98290
H          -1.48480        -1.55210        -0.62700
H          -0.41550         0.40560        -2.16090
H          -1.48360         0.87290        -0.82290
H           1.55990         0.83260        -0.82770
H           0.47480         2.09880        -0.21140
H           0.33890        -1.60790         1.40540
H          -1.07720        -0.54100         1.53570

