!Put Keywords Here, check Charge and Multiplicity.
#m062X/6-31+G(d) OPT Freq=noraman

 cyclopentene

0  1
C           1.02330         0.74360        -0.06060
C           1.01040        -0.75860         0.22110
C          -0.40840        -1.13380        -0.04380
C          -1.19540        -0.05930        -0.14760
C          -0.42990         1.20810         0.03100
H           1.40680         0.92670        -1.07300
H           1.67370         1.28700         0.63260
H           1.70200        -1.29030        -0.43880
H           1.27320        -0.97610         1.26140
H          -0.75910        -2.15350        -0.11010
H          -2.26250        -0.09990        -0.31070
H          -0.66170         1.93720        -0.75070
H          -0.65100         1.65100         1.00750

