!Put Keywords Here, check Charge and Multiplicity.
#m062X/6-31+G(d) OPT Freq=noraman

 2-methylpyrazine

0  1
C           0.08780         0.39390        -0.05460
C          -0.32110        -1.01810         0.18240
C          -1.55710        -1.30730         0.71740
N          -1.95730        -2.57390         0.94530
C          -1.07720        -3.54100         0.61880
C           0.15850        -3.25190         0.08310
N           0.55880        -1.98520        -0.14440
H          -0.20850         0.70560        -1.06080
H          -0.37850         1.06380         0.67540
H           1.17220         0.50900         0.04690
H          -2.26940        -0.53530         0.98410
H          -1.39880        -4.55860         0.80240
H           0.86510        -4.02920        -0.18020

