!Put Keywords Here, check Charge and Multiplicity.
#m062X/6-31+G(d) OPT Freq=noraman

 methyl 2,2,2-trifluoroacetate

0  1
C          -0.44860        -0.98680         0.16640
O          -0.85710        -1.11860         1.53180
C           0.14000        -1.01290         2.45520
O           1.32590        -0.81960         2.22470
C          -0.42900        -1.17810         3.82670
F          -1.76940        -1.38750         3.80180
F           0.12200        -2.23160         4.48080
F          -0.21610        -0.08100         4.59630
H          -1.31910        -1.08690        -0.48640
H           0.28850        -1.75820        -0.07050
H          -0.00000        -0.00090         0.02320

