!Put Keywords Here, check Charge and Multiplicity.
#m062X/6-31+G(d) OPT Freq=noraman

 methane

0  1
C          -0.00000        -0.00010         0.00000
H           0.55410         0.79960         0.49650
H           0.68330        -0.81340        -0.25370
H          -0.77820        -0.37350         0.66930
H          -0.45910         0.38730        -0.91210

