!Put Keywords Here, check Charge and Multiplicity.
#m062X/6-31+G(d) OPT Freq=noraman

 but-1-yne

0  1
C           1.03190         0.27350         0.24610
C           1.46820        -0.35530         1.55860
C           1.39940        -1.82070         1.49710
C           1.34430        -3.01910         1.45030
H           1.08400         1.36670         0.29440
H           0.00100        -0.00230        -0.00150
H           1.67930        -0.06230        -0.57020
H           0.82800         0.01220         2.36830
H           2.49230        -0.04160         1.78930
H           1.29500        -4.08210         1.40920

