!Put Keywords Here, check Charge and Multiplicity.
#m062X/6-31+G(d) OPT Freq=noraman

 N,N-dimethylmethanamine

0  1
C          -0.27170        -0.25490         1.03090
N           0.90130        -0.51700         1.86400
C           1.75130         0.67070         1.93810
C           1.65670        -1.65430         1.33980
H          -0.90270        -1.14600         0.97950
H           0.03730         0.01640         0.01770
H          -0.85740         0.56730         1.45060
H           2.61120         0.44810         2.56070
H           1.18100         1.48630         2.37020
H           2.07570         0.93540         0.93730
H           2.51870        -1.82540         1.97560
H           1.97950        -1.42760         0.32920
H           1.01750        -2.53080         1.33650

