!Put Keywords Here, check Charge and Multiplicity.
#m062X/6-31+G(d) OPT Freq=noraman

 3,4-dichlorophenol

0  1
C           1.88510        -1.03630        -0.11240
C           2.92100        -1.63090         0.60810
C           2.87830        -1.65200         2.00220
C           1.79970        -1.07860         2.67570
C           0.76380        -0.48410         1.95510
C           0.80660        -0.46300         0.56100
O          -0.20370         0.11730        -0.14250
Cl          1.68910        -1.07330         4.40080
Cl          4.19180        -2.40280         2.83810
H           1.92400        -1.02290        -1.19840
H           3.75410        -2.07270         0.06740
H          -0.08190        -0.03400         2.47020
H          -0.03070         0.05230        -1.09530

