!Put Keywords Here, check Charge and Multiplicity.
#m062X/6-31+G(d) OPT Freq=noraman

 2-bromopropane

0  1
C          -0.24960        -0.56560        -1.13520
C          -0.15300        -0.40840         0.37240
C           0.21010         1.00850         0.78080
Br          1.21480        -1.63270         1.05010
H          -0.51210        -1.59320        -1.40980
H          -1.02160         0.09540        -1.54290
H           0.69750        -0.32200        -1.62950
H          -1.08900        -0.71560         0.84930
H           0.27490         1.10160         1.87050
H          -0.54800         1.71690         0.43050
H           1.17590         1.31520         0.36370

