!Put Keywords Here, check Charge and Multiplicity.
#m062X/6-31+G(d) OPT Freq=noraman

 piperazine

0  1
C          -0.84490        -1.05580        -0.44310
C          -0.84160         0.32130        -1.10660
N          -0.45120         1.36430        -0.15810
C           0.84590         1.05940         0.44550
C           0.83770        -0.31960         1.10480
N           0.45410        -1.36960         0.15750
H          -1.08470        -1.82120        -1.18960
H          -1.62760        -1.10950         0.32380
H          -0.16400         0.32680        -1.96980
H          -1.84560         0.54340        -1.48430
H          -0.39970         2.26100        -0.64040
H           1.63530         1.11360        -0.31480
H           1.07330         1.82000         1.20010
H           1.83580        -0.54350         1.49730
H           0.15380        -0.33000         1.96260
H           0.37500        -2.25250         0.66330

