!Put Keywords Here, check Charge and Multiplicity.
#m062X/6-31+G(d) OPT Freq=noraman

 5-chloro-1H-pyrimidine-2,4-dione

0  1
C           0.66830         1.35600        -0.06060
C          -0.29420         0.93740         0.76500
C          -0.80910        -0.45130         0.64560
O          -1.69230        -0.88650         1.37910
N          -0.20560        -1.20040        -0.35930
C           0.80250        -0.76590        -1.22540
O           1.29050        -1.49010        -2.09380
N           1.20540         0.54610        -1.02390
Cl         -0.96560         1.95480         1.97330
H           1.08290         2.35650        -0.02000
H          -0.52900        -2.15670        -0.47540
H           1.93460         0.93310        -1.61550

