!Put Keywords Here, check Charge and Multiplicity.
#m062X/6-31+G(d) OPT Freq=noraman

 cyclohepta-1,3,5-triene

0  1
C           0.56140         1.57690         0.25830
C           1.53960         0.44640         0.17180
C           1.35830        -0.84730        -0.11890
C           0.14450        -1.51870        -0.49940
C          -1.11620        -1.08960        -0.37890
C          -1.58930         0.15600         0.16270
C          -0.89830         1.27630         0.40440
H           0.70330         2.23590        -0.60620
H           0.84590         2.16490         1.14140
H           2.56780         0.74480         0.37950
H           2.23930        -1.48750        -0.12120
H           0.29770        -2.50850        -0.92670
H          -1.90680        -1.75700        -0.71820
H          -2.66230         0.18140         0.34580
H          -1.48210         2.12320         0.76700

