!Put Keywords Here, check Charge and Multiplicity.
#m062X/6-31+G(d) OPT Freq=noraman

 (2R)-1,1,1-trifluoropropan-2-ol

0  1
C          -0.77630         0.59180         0.83490
C          -0.23720        -0.17690        -0.36210
H          -0.92490        -0.98780        -0.62440
C           1.13810        -0.74960        -0.09330
F           1.11240        -1.60130         0.95540
F           1.59040        -1.43920        -1.16400
F           2.03640         0.21930         0.18350
O          -0.14520         0.69980        -1.48040
H          -0.10170         1.40880         1.11380
H          -0.91320        -0.06280         1.70070
H          -1.74040         1.05130         0.59140
H          -1.04270         1.02530        -1.65230

