!Put Keywords Here, check Charge and Multiplicity.
#m062X/6-31+G(d) OPT Freq=noraman

 chloromethane

0  1
C           0.08300        -0.06590        -0.09040
Cl         -0.97000         0.77110         1.05560
H           0.70120         0.66940        -0.61000
H           0.71900        -0.76620         0.45540
H          -0.53320        -0.60840        -0.81070

