!Put Keywords Here, check Charge and Multiplicity.
#m062X/6-31+G(d) OPT Freq=noraman

 methoxymethane

0  1
C          -0.61040        -0.51520         0.74820
O           0.03530        -0.49870         2.01410
C           1.28930        -1.16600         1.96890
H          -1.56860         0.00520         0.82030
H          -0.76820        -1.54940         0.43200
H           0.02410        -0.00600         0.01890
H           1.75110        -1.13120         2.95670
H           1.93040        -0.67780         1.23330
H           1.12320        -2.20430         1.67870

