!Put Keywords Here, check Charge and Multiplicity.
#m062X/6-31+G(d) OPT Freq=noraman

 acetonitrile

0  1
C           0.44770         0.28390         0.95710
C          -0.20620         1.47130         1.50450
N          -0.72510         2.41370         1.93900
H          -0.28270        -0.50700         0.76200
H           1.19290        -0.10680         1.65640
H           0.95450         0.51810         0.01620

