!Put Keywords Here, check Charge and Multiplicity.
#m062X/6-31+G(d) OPT Freq=noraman

 methylsulfanylmethane

0  1
C           0.98560        -0.32890         0.34010
S           1.22450         0.18240         2.05820
C           2.88550        -0.48690         2.31010
H           0.00250        -0.00560        -0.01070
H           1.05090        -1.41710         0.26430
H           1.75590         0.12030        -0.29140
H           3.21800        -0.27170         3.32700
H           3.57700        -0.02870         1.60100
H           2.87310        -1.56700         2.15550

