!Put Keywords Here, check Charge and Multiplicity.
#m062X/6-31+G(d) OPT Freq=noraman

 bromomethane

0  1
C           0.13590        -0.10000        -0.07290
Br         -1.29460         0.95190         0.69560
H           0.81580         0.57920        -0.58950
H           0.64830        -0.61900         0.73850
H          -0.30550        -0.81210        -0.77170

